/*--------------------------------*- C++ -*----------------------------------*\
| =========                 |                                                 |
| \\      /  F ield         | OpenFOAM: The Open Source CFD Toolbox           |
|  \\    /   O peration     | Version:  4.0                                   |
|   \\  /    A nd           | Web:      www.OpenFOAM.org                      |
|    \\/     M anipulation  |                                                 |
\*---------------------------------------------------------------------------*/
FoamFile
{
    version     2.0;
    format      ascii;
    class       dictionary;
    location    "constant";
    object      transportProperties;
}
// * * * * * * * * * * * * * * * * * * * * * * * * * * * * * * * * * * * * * //

phases (sand water air);

sand
{
    transportModel  KriegerDougherty;		//Type of mixture viscosity closure
    
	dargModel		driftFlux;		//Type of drag closure
	m				3.15;			//Exponent of Cheng drag model
	d				0.135e-3;		//Sand diameter = d * shape factor
	alphaMax		0.58;			//Random close packing volume fraction
	packingLimiter	false;			//Flag to apply packing limiter in aphad_Eqn
	ULimiter		false;			//Flag to apply limiter on the particle velocity
    rho         	2650;			//Sand density
	Sct				0.75;			//Turbulent Schmidt number. This value was measured by APFP

	mupMax			mupMax [1 -1 -1 0 0 0 0] 1.0e02;
}

water
{
    transportModel  Newtonian;
    nu              [0 2 -1 0 0 0 0] 1e-06;
    rho             [1 -3 0 0 0 0 0] 1000;
}

air
{
    transportModel  Newtonian;
    nu              [0 2 -1 0 0 0 0] 1.48e-05;
    rho             [1 -3 0 0 0 0 0] 1;
}

sigma           [1 0 -2 0 0 0 0] 0.07;

//Mean pressure gradient
gradPMean        gradPMean        [ 1 -2 -2 0 0 0 0 ] (8.258 0 0 ); // mean pressure

//Relative velocity parameters
relativeVelocity
	{
		turbulentDispersion		true;	//Flag to include turbulent dispersion force 
		shearInduced			false;	//Flag to include shear induced self-diffusion
		nWCdCorrectors			4;		//No. of W-CD coupling loop iterations

	}


//Granular rheology paramaters
granularRheology
	{
		//Johnson and Jackson (1987) fricitional pressure parameters
		alphaMinFriction	alphaMinFriction [ 0 0 0 0 0 0 0 ] 0.53;	//Minimum volume fraction to activate frictional pressure
		Cp					Cp [ 1 -1 -2 0 0 0 0 ] 5e-2;
		C1					C1 [ 0 0 0 0 0 0 0 ] 3;
		C2					C2 [ 0 0 0 0 0 0 0 ] 5;	

		//Kinetic or collisional pressure parameters
		kineticPressure		false;								//Flag to solve for kinetic pressure
		Bphi            	Bphi [ 0 0 0 0 0 0 0 ] 0.66;		//Parameter of the dilatancy law (0.25 to 0.9)
		relaxPsk			relaxPsk [0 0 0 0 0 0 0] 0.005;		//Relaxation factor for psk 
		
		//Particle shear viscosity parameters
		lambdaR				lambdaR [ 0 0 -1 0 0 0 0 ] 1.0e-6;	//Regularization parameter
		mus					mus  [ 0 0 0 0 0 0 0 ] 0.52;			//static friction coefficient (tangent of the angle of repose)
		mu2         	    mu2  [ 0 0 0 0 0 0 0 ] 0.96;			//dynamical friction coefficient 
		I0					I0   [ 0 0 0 0 0 0 0 ] 0.6;			//empirical rheological coefficient 		 
	}

removeAir	false;
addWater	false;



// ************************************************************************* //
